cases/case30_tree.m
function mpc = sean2

%% MATPOWER Case Format : Version 2
mpc.version = '2';

%%-----  Power Flow Data  -----%%
%% system MVA base
mpc.baseMVA = 1;

%% bus data
%	bus_i	type	Pd	Qd	Gs	Bs	area	Vm	Va	baseKV	zone	Vmax	Vmin
mpc.bus = [
	1	3	21.7	12.7	0	0	1	1	0	135	1	1.1	0.95;
	2	2	0	0	0	0	1	1	0	135	1	1.05	0.95;
	3	1	2.4	1.2	0	0	1	1	0	135	1	1.05	0.95;
	4	1	0	0	0	0	1	1	0	135	1	1.05	0.95;
	5	1	22.8	10.9	0	0	1	1	0	135	1	1.05	0.95;
	6	1	7.6	1.6	0	0	1	1	0	135	1	1.05	0.95;
	7	1	0	0	0	0.19	1	1	0	135	1	1.05	0.95;
	8	1	30	30	0	0	1	1	0	135	1	1.05	0.95;
	9	1	0	0	0	0	1	1	0	135	1	1.05	0.95;
	10	1	5.8	2	0	0	3	1	0	135	1	1.05	0.95;
	11	1	0	0	0	0	1	1	0	135	1	1.05	0.95;
	12	1	11.2	7.5	0	0	2	1	0	135	1	1.05	0.95;
	13	2	0	0	0	0	2	1	0	135	1	1.1	0.95;
	14	1	8.2	2.5	0	0	2	1	0	135	1	1.05	0.95;
	15	1	6.2	1.6	0	0	2	1	0	135	1	1.05	0.95;
	16	1	9	5.8	0	0	2	1	0	135	1	1.05	0.95;
	17	1	3.5	1.8	0	0	2	1	0	135	1	1.05	0.95;
	18	1	3.2	0.9	0	0	2	1	0	135	1	1.05	0.95;
	19	1	9.5	3.4	0	0	2	1	0	135	1	1.05	0.95;
	20	1	2.2	0.7	0	0	2	1	0	135	1	1.05	0.95;
	21	1	17.5	11.2	0	0	3	1	0	135	1	1.05	0.95;
	22	2	0	0	0	0	3	1	0	135	1	1.1	0.95;
	23	1	8.7	6.7	0	0.04	3	1	0	135	1	1.05	0.95;
	24	2	3.2	1.6	0	0	2	1	0	135	1	1.1	0.95;
	25	1	0	0	0	0	1	1	0	135	1	1.05	0.95;
	26	2	0	0	0	0	3	1	0	135	1	1.1	0.95;
	27	1	0	0	0	0	3	1	0	135	1	1.05	0.95;
	28	1	3.5	2.3	0	0	3	1	0	135	1	1.05	0.95;
	29	1	2.4	0.9	0	0	3	1	0	135	1	1.05	0.95;
	30	1	10.6	1.9	0	0	3	1	0	135	1	1.05	0.95;
];

%% generator data
%	bus	Pg	Qg	Qmax	Qmin	Vg	mBase	status	Pmax	Pmin	Pc1	Pc2	Qc1min	Qc1max	Qc2min	Qc2max	ramp_agc	ramp_10	ramp_30	ramp_q	apf
mpc.gen = [
	1	0	0	60	-20	1	100	1	80	0	0	0	0	0	0	0	0	0	0	0	0;
	2	0	0	150	-20	1	100	1	80	0	0	0	0	0	0	0	0	0	0	0	0;
	13	0	0	44.7	-15	1	100	1	40	0	0	0	0	0	0	0	0	0	0	0	0;
	22	0	0	62.5	-15	1	100	1	50	0	0	0	0	0	0	0	0	0	0	0	0;
	24	0	0	40	-10	1	100	1	30	0	0	0	0	0	0	0	0	0	0	0	0;
	26	0	0	48.7	-15	1	100	1	55	0	0	0	0	0	0	0	0	0	0	0	0;
];

%% branch data
%	fbus	tbus	r	x	b	rateA	rateB	rateC	ratio	angle	status	angmin	angmax
mpc.branch = [
	1	2	0.0002	0.0006	0	130	130	130	0	0	1	-360	360;
	1	4	0.0006	0.0018	0	65	65	65	0	0	1	-360	360;
	2	3	0.0005	0.0019	0	130	130	130	0	0	1	-360	360;
	4	5	0.0003	0.0008	0	130	130	130	0	0	1	-360	360;
	4	6	0.0001	0.0004	0	90	90	90	0	0	1	-360	360;
	4	8	0.0001	0.0004	0	32	32	32	0	0	1	-360	360;
	4	9	0	0.0021	0	65	65	65	0	0	1	-360	360;
	5	7	0.0005	0.0012	0	70	70	70	0	0	1	-360	360;
	6	12	0	0.0026	0	65	65	65	0	0	1	-360	360;
	8	25	0.0006	0.002	0	32	32	32	0	0	1	-360	360;
	9	11	0	0.0021	0	65	65	65	0	0	1	-360	360;
	9	10	0	0.0011	0	65	65	65	0	0	1	-360	360;
	10	16	0.0003	0.0008	0	32	32	32	0	0	1	-360	360;
	10	21	0.0003	0.0007	0	32	32	32	0	0	1	-360	360;
	10	22	0.0007	0.0015	0	32	32	32	0	0	1	-360	360;
	12	13	0	0.0014	0	65	65	65	0	0	1	-360	360;
	12	14	0.0007	0.0013	0	32	32	32	0	0	1	-360	360;
	14	15	0.0022	0.002	0	16	16	16	0	0	1	-360	360;
	14	18	0.0011	0.0022	0	16	16	16	0	0	1	-360	360;
	16	17	0.0008	0.0019	0	16	16	16	0	0	1	-360	360;
	18	19	0.0006	0.0013	0	16	16	16	0	0	1	-360	360;
	19	20	0.0003	0.0007	0	32	32	32	0	0	1	-360	360;
	22	23	0.0012	0.0018	0	16	16	16	0	0	1	-360	360;
	23	24	0.0013	0.0027	0	16	16	16	0	0	1	-360	360;
	25	26	0	0.004	0	65	65	65	0	0	1	-360	360;
	26	27	0.0011	0.0021	0	16	16	16	0	0	1	-360	360;
	26	29	0.0022	0.0042	0	16	16	16	0	0	1	-360	360;
	27	28	0.0025	0.0038	0	16	16	16	0	0	1	-360	360;
	29	30	0.0024	0.0045	0	16	16	16	0	0	1	-360	360;
];
